
---------- Begin Simulation Statistics ----------
sim_seconds                                  2.316674                       # Number of seconds simulated
sim_ticks                                2316673580000                       # Number of ticks simulated
final_tick                               2316673580000                       # Number of ticks from beginning of simulation (restored from checkpoints and never reset)
sim_freq                                 1000000000000                       # Frequency of simulated ticks
host_inst_rate                                 519758                       # Simulator instruction rate (inst/s)
host_op_rate                                   832622                       # Simulator op (including micro ops) rate (op/s)
host_tick_rate                             1292657330                       # Simulator tick rate (ticks/s)
host_mem_usage                                 660848                       # Number of bytes of host memory used
host_seconds                                  1792.18                       # Real time elapsed on the host
sim_insts                                   931499899                       # Number of instructions simulated
sim_ops                                    1492207764                       # Number of ops (including micro ops) simulated
system.voltage_domain.voltage                       1                       # Voltage in Volts
system.clk_domain.clock                          1000                       # Clock period in ticks
system.mem_ctrls.pwrStateResidencyTicks::UNDEFINED 2316673580000                       # Cumulative time (in ticks) in various power states
system.mem_ctrls.bytes_read::cpu.inst           22656                       # Number of bytes read from this memory
system.mem_ctrls.bytes_read::cpu.data        67809344                       # Number of bytes read from this memory
system.mem_ctrls.bytes_read::total           67832000                       # Number of bytes read from this memory
system.mem_ctrls.bytes_inst_read::cpu.inst        22656                       # Number of instructions bytes read from this memory
system.mem_ctrls.bytes_inst_read::total         22656                       # Number of instructions bytes read from this memory
system.mem_ctrls.bytes_written::writebacks       923840                       # Number of bytes written to this memory
system.mem_ctrls.bytes_written::total          923840                       # Number of bytes written to this memory
system.mem_ctrls.num_reads::cpu.inst              354                       # Number of read requests responded to by this memory
system.mem_ctrls.num_reads::cpu.data          1059521                       # Number of read requests responded to by this memory
system.mem_ctrls.num_reads::total             1059875                       # Number of read requests responded to by this memory
system.mem_ctrls.num_writes::writebacks         14435                       # Number of write requests responded to by this memory
system.mem_ctrls.num_writes::total              14435                       # Number of write requests responded to by this memory
system.mem_ctrls.bw_read::cpu.inst               9780                       # Total read bandwidth from this memory (bytes/s)
system.mem_ctrls.bw_read::cpu.data           29270133                       # Total read bandwidth from this memory (bytes/s)
system.mem_ctrls.bw_read::total              29279913                       # Total read bandwidth from this memory (bytes/s)
system.mem_ctrls.bw_inst_read::cpu.inst          9780                       # Instruction read bandwidth from this memory (bytes/s)
system.mem_ctrls.bw_inst_read::total             9780                       # Instruction read bandwidth from this memory (bytes/s)
system.mem_ctrls.bw_write::writebacks          398779                       # Write bandwidth from this memory (bytes/s)
system.mem_ctrls.bw_write::total               398779                       # Write bandwidth from this memory (bytes/s)
system.mem_ctrls.bw_total::writebacks          398779                       # Total bandwidth to/from this memory (bytes/s)
system.mem_ctrls.bw_total::cpu.inst              9780                       # Total bandwidth to/from this memory (bytes/s)
system.mem_ctrls.bw_total::cpu.data          29270133                       # Total bandwidth to/from this memory (bytes/s)
system.mem_ctrls.bw_total::total             29678691                       # Total bandwidth to/from this memory (bytes/s)
system.pwrStateResidencyTicks::UNDEFINED 2316673580000                       # Cumulative time (in ticks) in various power states
system.cpu_voltage_domain.voltage                   1                       # Voltage in Volts
system.cpu_clk_domain.clock                       500                       # Clock period in ticks
system.cpu.dtb.walker.pwrStateResidencyTicks::UNDEFINED 2316673580000                       # Cumulative time (in ticks) in various power states
system.cpu.dtb.rdAccesses                   382684104                       # TLB accesses on read requests
system.cpu.dtb.wrAccesses                    56342478                       # TLB accesses on write requests
system.cpu.dtb.rdMisses                       7936442                       # TLB misses on read requests
system.cpu.dtb.wrMisses                           272                       # TLB misses on write requests
system.cpu.apic_clk_domain.clock                 8000                       # Clock period in ticks
system.cpu.interrupts.pwrStateResidencyTicks::UNDEFINED 2316673580000                       # Cumulative time (in ticks) in various power states
system.cpu.itb.walker.pwrStateResidencyTicks::UNDEFINED 2316673580000                       # Cumulative time (in ticks) in various power states
system.cpu.itb.rdAccesses                           0                       # TLB accesses on read requests
system.cpu.itb.wrAccesses                  1422005625                       # TLB accesses on write requests
system.cpu.itb.rdMisses                             0                       # TLB misses on read requests
system.cpu.itb.wrMisses                            36                       # TLB misses on write requests
system.cpu.workload.numSyscalls                     9                       # Number of system calls
system.cpu.pwrStateResidencyTicks::ON    2316673580000                       # Cumulative time (in ticks) in various power states
system.cpu.numCycles                       4633347160                       # number of cpu cycles simulated
system.cpu.numWorkItemsStarted                      0                       # number of work items this cpu started
system.cpu.numWorkItemsCompleted                    0                       # number of work items this cpu completed
system.cpu.committedInsts                   931499899                       # Number of instructions committed
system.cpu.committedOps                    1492207764                       # Number of ops (including micro ops) committed
system.cpu.num_int_alu_accesses            1491701050                       # Number of integer alu accesses
system.cpu.num_fp_alu_accesses                   1943                       # Number of float alu accesses
system.cpu.num_vec_alu_accesses                     0                       # Number of vector alu accesses
system.cpu.num_func_calls                     1080242                       # number of times a function call or return occured
system.cpu.num_conditional_control_insts     29571457                       # number of instructions that are conditional controls
system.cpu.num_int_insts                   1491701050                       # number of integer instructions
system.cpu.num_fp_insts                          1943                       # number of float instructions
system.cpu.num_vec_insts                            0                       # number of vector instructions
system.cpu.num_int_register_reads          2934935010                       # number of times the integer registers were read
system.cpu.num_int_register_writes         1545512941                       # number of times the integer registers were written
system.cpu.num_fp_register_reads                 3767                       # number of times the floating registers were read
system.cpu.num_fp_register_writes                1480                       # number of times the floating registers were written
system.cpu.num_vec_register_reads                   0                       # number of times the vector registers were read
system.cpu.num_vec_register_writes                  0                       # number of times the vector registers were written
system.cpu.num_cc_register_reads            159199316                       # number of times the CC registers were read
system.cpu.num_cc_register_writes           523310534                       # number of times the CC registers were written
system.cpu.num_mem_refs                     439026579                       # number of memory refs
system.cpu.num_load_insts                   382684101                       # Number of load instructions
system.cpu.num_store_insts                   56342478                       # Number of store instructions
system.cpu.num_idle_cycles                          0                       # Number of idle cycles
system.cpu.num_busy_cycles                 4633347160                       # Number of busy cycles
system.cpu.not_idle_fraction                        1                       # Percentage of non-idle cycles
system.cpu.idle_fraction                            0                       # Percentage of idle cycles
system.cpu.Branches                          30742409                       # Number of branches fetched
system.cpu.op_class::No_OpClass                505293      0.03%      0.03% # Class of executed instruction
system.cpu.op_class::IntAlu                 914844146     61.31%     61.34% # Class of executed instruction
system.cpu.op_class::IntMult                135270004      9.07%     70.41% # Class of executed instruction
system.cpu.op_class::IntDiv                   2560782      0.17%     70.58% # Class of executed instruction
system.cpu.op_class::FloatAdd                      10      0.00%     70.58% # Class of executed instruction
system.cpu.op_class::FloatCmp                       0      0.00%     70.58% # Class of executed instruction
system.cpu.op_class::FloatCvt                       0      0.00%     70.58% # Class of executed instruction
system.cpu.op_class::FloatMult                      0      0.00%     70.58% # Class of executed instruction
system.cpu.op_class::FloatMultAcc                   0      0.00%     70.58% # Class of executed instruction
system.cpu.op_class::FloatDiv                       0      0.00%     70.58% # Class of executed instruction
system.cpu.op_class::FloatMisc                      0      0.00%     70.58% # Class of executed instruction
system.cpu.op_class::FloatSqrt                      0      0.00%     70.58% # Class of executed instruction
system.cpu.op_class::SimdAdd                      374      0.00%     70.58% # Class of executed instruction
system.cpu.op_class::SimdAddAcc                     0      0.00%     70.58% # Class of executed instruction
system.cpu.op_class::SimdAlu                       68      0.00%     70.58% # Class of executed instruction
system.cpu.op_class::SimdCmp                        0      0.00%     70.58% # Class of executed instruction
system.cpu.op_class::SimdCvt                      108      0.00%     70.58% # Class of executed instruction
system.cpu.op_class::SimdMisc                     214      0.00%     70.58% # Class of executed instruction
system.cpu.op_class::SimdMult                       0      0.00%     70.58% # Class of executed instruction
system.cpu.op_class::SimdMultAcc                    0      0.00%     70.58% # Class of executed instruction
system.cpu.op_class::SimdShift                    186      0.00%     70.58% # Class of executed instruction
system.cpu.op_class::SimdShiftAcc                   0      0.00%     70.58% # Class of executed instruction
system.cpu.op_class::SimdSqrt                       0      0.00%     70.58% # Class of executed instruction
system.cpu.op_class::SimdFloatAdd                   0      0.00%     70.58% # Class of executed instruction
system.cpu.op_class::SimdFloatAlu                   0      0.00%     70.58% # Class of executed instruction
system.cpu.op_class::SimdFloatCmp                   0      0.00%     70.58% # Class of executed instruction
system.cpu.op_class::SimdFloatCvt                   0      0.00%     70.58% # Class of executed instruction
system.cpu.op_class::SimdFloatDiv                   0      0.00%     70.58% # Class of executed instruction
system.cpu.op_class::SimdFloatMisc                  0      0.00%     70.58% # Class of executed instruction
system.cpu.op_class::SimdFloatMult                  0      0.00%     70.58% # Class of executed instruction
system.cpu.op_class::SimdFloatMultAcc               0      0.00%     70.58% # Class of executed instruction
system.cpu.op_class::SimdFloatSqrt                  0      0.00%     70.58% # Class of executed instruction
system.cpu.op_class::MemRead                382684045     25.65%     96.22% # Class of executed instruction
system.cpu.op_class::MemWrite                56342063      3.78%    100.00% # Class of executed instruction
system.cpu.op_class::FloatMemRead                  56      0.00%    100.00% # Class of executed instruction
system.cpu.op_class::FloatMemWrite                415      0.00%    100.00% # Class of executed instruction
system.cpu.op_class::IprAccess                      0      0.00%    100.00% # Class of executed instruction
system.cpu.op_class::InstPrefetch                   0      0.00%    100.00% # Class of executed instruction
system.cpu.op_class::total                 1492207764                       # Class of executed instruction
system.cpu.dcache.tags.pwrStateResidencyTicks::UNDEFINED 2316673580000                       # Cumulative time (in ticks) in various power states
system.cpu.dcache.tags.tagsinuse           511.912163                       # Cycle average of tags in use
system.cpu.dcache.tags.total_refs           439026582                       # Total number of references to valid blocks.
system.cpu.dcache.tags.sampled_refs           3126820                       # Sample count of references to valid blocks.
system.cpu.dcache.tags.avg_refs            140.406733                       # Average number of references to valid blocks.
system.cpu.dcache.tags.warmup_cycle            769000                       # Cycle when the warmup percentage was hit.
system.cpu.dcache.tags.occ_blocks::cpu.data   511.912163                       # Average occupied blocks per requestor
system.cpu.dcache.tags.occ_percent::cpu.data     0.999828                       # Average percentage of cache occupancy
system.cpu.dcache.tags.occ_percent::total     0.999828                       # Average percentage of cache occupancy
system.cpu.dcache.tags.occ_task_id_blocks::1024          512                       # Occupied blocks per task id
system.cpu.dcache.tags.age_task_id_blocks_1024::0           16                       # Occupied blocks per task id
system.cpu.dcache.tags.age_task_id_blocks_1024::1           55                       # Occupied blocks per task id
system.cpu.dcache.tags.age_task_id_blocks_1024::2          426                       # Occupied blocks per task id
system.cpu.dcache.tags.age_task_id_blocks_1024::3           14                       # Occupied blocks per task id
system.cpu.dcache.tags.age_task_id_blocks_1024::4            1                       # Occupied blocks per task id
system.cpu.dcache.tags.occ_task_id_percent::1024            1                       # Percentage of cache occupancy per task id
system.cpu.dcache.tags.tag_accesses         881179984                       # Number of tag accesses
system.cpu.dcache.tags.data_accesses        881179984                       # Number of data accesses
system.cpu.dcache.pwrStateResidencyTicks::UNDEFINED 2316673580000                       # Cumulative time (in ticks) in various power states
system.cpu.dcache.ReadReq_hits::cpu.data    379577552                       # number of ReadReq hits
system.cpu.dcache.ReadReq_hits::total       379577552                       # number of ReadReq hits
system.cpu.dcache.WriteReq_hits::cpu.data     56322209                       # number of WriteReq hits
system.cpu.dcache.WriteReq_hits::total       56322209                       # number of WriteReq hits
system.cpu.dcache.demand_hits::cpu.data     435899761                       # number of demand (read+write) hits
system.cpu.dcache.demand_hits::total        435899761                       # number of demand (read+write) hits
system.cpu.dcache.overall_hits::cpu.data    435899761                       # number of overall hits
system.cpu.dcache.overall_hits::total       435899761                       # number of overall hits
system.cpu.dcache.ReadReq_misses::cpu.data      3106552                       # number of ReadReq misses
system.cpu.dcache.ReadReq_misses::total       3106552                       # number of ReadReq misses
system.cpu.dcache.WriteReq_misses::cpu.data        20269                       # number of WriteReq misses
system.cpu.dcache.WriteReq_misses::total        20269                       # number of WriteReq misses
system.cpu.dcache.demand_misses::cpu.data      3126821                       # number of demand (read+write) misses
system.cpu.dcache.demand_misses::total        3126821                       # number of demand (read+write) misses
system.cpu.dcache.overall_misses::cpu.data      3126821                       # number of overall misses
system.cpu.dcache.overall_misses::total       3126821                       # number of overall misses
system.cpu.dcache.ReadReq_miss_latency::cpu.data 454808021000                       # number of ReadReq miss cycles
system.cpu.dcache.ReadReq_miss_latency::total 454808021000                       # number of ReadReq miss cycles
system.cpu.dcache.WriteReq_miss_latency::cpu.data   3901676000                       # number of WriteReq miss cycles
system.cpu.dcache.WriteReq_miss_latency::total   3901676000                       # number of WriteReq miss cycles
system.cpu.dcache.demand_miss_latency::cpu.data 458709697000                       # number of demand (read+write) miss cycles
system.cpu.dcache.demand_miss_latency::total 458709697000                       # number of demand (read+write) miss cycles
system.cpu.dcache.overall_miss_latency::cpu.data 458709697000                       # number of overall miss cycles
system.cpu.dcache.overall_miss_latency::total 458709697000                       # number of overall miss cycles
system.cpu.dcache.ReadReq_accesses::cpu.data    382684104                       # number of ReadReq accesses(hits+misses)
system.cpu.dcache.ReadReq_accesses::total    382684104                       # number of ReadReq accesses(hits+misses)
system.cpu.dcache.WriteReq_accesses::cpu.data     56342478                       # number of WriteReq accesses(hits+misses)
system.cpu.dcache.WriteReq_accesses::total     56342478                       # number of WriteReq accesses(hits+misses)
system.cpu.dcache.demand_accesses::cpu.data    439026582                       # number of demand (read+write) accesses
system.cpu.dcache.demand_accesses::total    439026582                       # number of demand (read+write) accesses
system.cpu.dcache.overall_accesses::cpu.data    439026582                       # number of overall (read+write) accesses
system.cpu.dcache.overall_accesses::total    439026582                       # number of overall (read+write) accesses
system.cpu.dcache.ReadReq_miss_rate::cpu.data     0.008118                       # miss rate for ReadReq accesses
system.cpu.dcache.ReadReq_miss_rate::total     0.008118                       # miss rate for ReadReq accesses
system.cpu.dcache.WriteReq_miss_rate::cpu.data     0.000360                       # miss rate for WriteReq accesses
system.cpu.dcache.WriteReq_miss_rate::total     0.000360                       # miss rate for WriteReq accesses
system.cpu.dcache.demand_miss_rate::cpu.data     0.007122                       # miss rate for demand accesses
system.cpu.dcache.demand_miss_rate::total     0.007122                       # miss rate for demand accesses
system.cpu.dcache.overall_miss_rate::cpu.data     0.007122                       # miss rate for overall accesses
system.cpu.dcache.overall_miss_rate::total     0.007122                       # miss rate for overall accesses
system.cpu.dcache.ReadReq_avg_miss_latency::cpu.data 146402.835362                       # average ReadReq miss latency
system.cpu.dcache.ReadReq_avg_miss_latency::total 146402.835362                       # average ReadReq miss latency
system.cpu.dcache.WriteReq_avg_miss_latency::cpu.data 192494.745671                       # average WriteReq miss latency
system.cpu.dcache.WriteReq_avg_miss_latency::total 192494.745671                       # average WriteReq miss latency
system.cpu.dcache.demand_avg_miss_latency::cpu.data 146701.617074                       # average overall miss latency
system.cpu.dcache.demand_avg_miss_latency::total 146701.617074                       # average overall miss latency
system.cpu.dcache.overall_avg_miss_latency::cpu.data 146701.617074                       # average overall miss latency
system.cpu.dcache.overall_avg_miss_latency::total 146701.617074                       # average overall miss latency
system.cpu.dcache.blocked_cycles::no_mshrs            0                       # number of cycles access was blocked
system.cpu.dcache.blocked_cycles::no_targets            0                       # number of cycles access was blocked
system.cpu.dcache.blocked::no_mshrs                 0                       # number of cycles access was blocked
system.cpu.dcache.blocked::no_targets               0                       # number of cycles access was blocked
system.cpu.dcache.avg_blocked_cycles::no_mshrs          nan                       # average number of cycles each access was blocked
system.cpu.dcache.avg_blocked_cycles::no_targets          nan                       # average number of cycles each access was blocked
system.cpu.dcache.writebacks::writebacks       349612                       # number of writebacks
system.cpu.dcache.writebacks::total            349612                       # number of writebacks
system.cpu.dcache.ReadReq_mshr_misses::cpu.data      3106552                       # number of ReadReq MSHR misses
system.cpu.dcache.ReadReq_mshr_misses::total      3106552                       # number of ReadReq MSHR misses
system.cpu.dcache.WriteReq_mshr_misses::cpu.data        20269                       # number of WriteReq MSHR misses
system.cpu.dcache.WriteReq_mshr_misses::total        20269                       # number of WriteReq MSHR misses
system.cpu.dcache.demand_mshr_misses::cpu.data      3126821                       # number of demand (read+write) MSHR misses
system.cpu.dcache.demand_mshr_misses::total      3126821                       # number of demand (read+write) MSHR misses
system.cpu.dcache.overall_mshr_misses::cpu.data      3126821                       # number of overall MSHR misses
system.cpu.dcache.overall_mshr_misses::total      3126821                       # number of overall MSHR misses
system.cpu.dcache.ReadReq_mshr_miss_latency::cpu.data 451701469000                       # number of ReadReq MSHR miss cycles
system.cpu.dcache.ReadReq_mshr_miss_latency::total 451701469000                       # number of ReadReq MSHR miss cycles
system.cpu.dcache.WriteReq_mshr_miss_latency::cpu.data   3881407000                       # number of WriteReq MSHR miss cycles
system.cpu.dcache.WriteReq_mshr_miss_latency::total   3881407000                       # number of WriteReq MSHR miss cycles
system.cpu.dcache.demand_mshr_miss_latency::cpu.data 455582876000                       # number of demand (read+write) MSHR miss cycles
system.cpu.dcache.demand_mshr_miss_latency::total 455582876000                       # number of demand (read+write) MSHR miss cycles
system.cpu.dcache.overall_mshr_miss_latency::cpu.data 455582876000                       # number of overall MSHR miss cycles
system.cpu.dcache.overall_mshr_miss_latency::total 455582876000                       # number of overall MSHR miss cycles
system.cpu.dcache.ReadReq_mshr_miss_rate::cpu.data     0.008118                       # mshr miss rate for ReadReq accesses
system.cpu.dcache.ReadReq_mshr_miss_rate::total     0.008118                       # mshr miss rate for ReadReq accesses
system.cpu.dcache.WriteReq_mshr_miss_rate::cpu.data     0.000360                       # mshr miss rate for WriteReq accesses
system.cpu.dcache.WriteReq_mshr_miss_rate::total     0.000360                       # mshr miss rate for WriteReq accesses
system.cpu.dcache.demand_mshr_miss_rate::cpu.data     0.007122                       # mshr miss rate for demand accesses
system.cpu.dcache.demand_mshr_miss_rate::total     0.007122                       # mshr miss rate for demand accesses
system.cpu.dcache.overall_mshr_miss_rate::cpu.data     0.007122                       # mshr miss rate for overall accesses
system.cpu.dcache.overall_mshr_miss_rate::total     0.007122                       # mshr miss rate for overall accesses
system.cpu.dcache.ReadReq_avg_mshr_miss_latency::cpu.data 145402.835362                       # average ReadReq mshr miss latency
system.cpu.dcache.ReadReq_avg_mshr_miss_latency::total 145402.835362                       # average ReadReq mshr miss latency
system.cpu.dcache.WriteReq_avg_mshr_miss_latency::cpu.data 191494.745671                       # average WriteReq mshr miss latency
system.cpu.dcache.WriteReq_avg_mshr_miss_latency::total 191494.745671                       # average WriteReq mshr miss latency
system.cpu.dcache.demand_avg_mshr_miss_latency::cpu.data 145701.617074                       # average overall mshr miss latency
system.cpu.dcache.demand_avg_mshr_miss_latency::total 145701.617074                       # average overall mshr miss latency
system.cpu.dcache.overall_avg_mshr_miss_latency::cpu.data 145701.617074                       # average overall mshr miss latency
system.cpu.dcache.overall_avg_mshr_miss_latency::total 145701.617074                       # average overall mshr miss latency
system.cpu.dcache.replacements                3126308                       # number of replacements
system.cpu.dtb_walker_cache.tags.pwrStateResidencyTicks::UNDEFINED 2316673580000                       # Cumulative time (in ticks) in various power states
system.cpu.dtb_walker_cache.tags.tagsinuse            0                       # Cycle average of tags in use
system.cpu.dtb_walker_cache.tags.total_refs            0                       # Total number of references to valid blocks.
system.cpu.dtb_walker_cache.tags.sampled_refs            0                       # Sample count of references to valid blocks.
system.cpu.dtb_walker_cache.tags.avg_refs          nan                       # Average number of references to valid blocks.
system.cpu.dtb_walker_cache.tags.warmup_cycle            0                       # Cycle when the warmup percentage was hit.
system.cpu.dtb_walker_cache.tags.tag_accesses            0                       # Number of tag accesses
system.cpu.dtb_walker_cache.tags.data_accesses            0                       # Number of data accesses
system.cpu.dtb_walker_cache.pwrStateResidencyTicks::UNDEFINED 2316673580000                       # Cumulative time (in ticks) in various power states
system.cpu.dtb_walker_cache.blocked_cycles::no_mshrs            0                       # number of cycles access was blocked
system.cpu.dtb_walker_cache.blocked_cycles::no_targets            0                       # number of cycles access was blocked
system.cpu.dtb_walker_cache.blocked::no_mshrs            0                       # number of cycles access was blocked
system.cpu.dtb_walker_cache.blocked::no_targets            0                       # number of cycles access was blocked
system.cpu.dtb_walker_cache.avg_blocked_cycles::no_mshrs          nan                       # average number of cycles each access was blocked
system.cpu.dtb_walker_cache.avg_blocked_cycles::no_targets          nan                       # average number of cycles each access was blocked
system.cpu.dtb_walker_cache.replacements            0                       # number of replacements
system.cpu.icache.tags.pwrStateResidencyTicks::UNDEFINED 2316673580000                       # Cumulative time (in ticks) in various power states
system.cpu.icache.tags.tagsinuse           281.943971                       # Cycle average of tags in use
system.cpu.icache.tags.total_refs          1422005625                       # Total number of references to valid blocks.
system.cpu.icache.tags.sampled_refs               354                       # Sample count of references to valid blocks.
system.cpu.icache.tags.avg_refs          4016965.042373                       # Average number of references to valid blocks.
system.cpu.icache.tags.warmup_cycle            449000                       # Cycle when the warmup percentage was hit.
system.cpu.icache.tags.occ_blocks::cpu.inst   281.943971                       # Average occupied blocks per requestor
system.cpu.icache.tags.occ_percent::cpu.inst     0.550672                       # Average percentage of cache occupancy
system.cpu.icache.tags.occ_percent::total     0.550672                       # Average percentage of cache occupancy
system.cpu.icache.tags.occ_task_id_blocks::1024          310                       # Occupied blocks per task id
system.cpu.icache.tags.age_task_id_blocks_1024::0           28                       # Occupied blocks per task id
system.cpu.icache.tags.age_task_id_blocks_1024::1           10                       # Occupied blocks per task id
system.cpu.icache.tags.age_task_id_blocks_1024::4          272                       # Occupied blocks per task id
system.cpu.icache.tags.occ_task_id_percent::1024     0.605469                       # Percentage of cache occupancy per task id
system.cpu.icache.tags.tag_accesses        2844011604                       # Number of tag accesses
system.cpu.icache.tags.data_accesses       2844011604                       # Number of data accesses
system.cpu.icache.pwrStateResidencyTicks::UNDEFINED 2316673580000                       # Cumulative time (in ticks) in various power states
system.cpu.icache.ReadReq_hits::cpu.inst   1422005271                       # number of ReadReq hits
system.cpu.icache.ReadReq_hits::total      1422005271                       # number of ReadReq hits
system.cpu.icache.demand_hits::cpu.inst    1422005271                       # number of demand (read+write) hits
system.cpu.icache.demand_hits::total       1422005271                       # number of demand (read+write) hits
system.cpu.icache.overall_hits::cpu.inst   1422005271                       # number of overall hits
system.cpu.icache.overall_hits::total      1422005271                       # number of overall hits
system.cpu.icache.ReadReq_misses::cpu.inst          354                       # number of ReadReq misses
system.cpu.icache.ReadReq_misses::total           354                       # number of ReadReq misses
system.cpu.icache.demand_misses::cpu.inst          354                       # number of demand (read+write) misses
system.cpu.icache.demand_misses::total            354                       # number of demand (read+write) misses
system.cpu.icache.overall_misses::cpu.inst          354                       # number of overall misses
system.cpu.icache.overall_misses::total           354                       # number of overall misses
system.cpu.icache.ReadReq_miss_latency::cpu.inst     58854000                       # number of ReadReq miss cycles
system.cpu.icache.ReadReq_miss_latency::total     58854000                       # number of ReadReq miss cycles
system.cpu.icache.demand_miss_latency::cpu.inst     58854000                       # number of demand (read+write) miss cycles
system.cpu.icache.demand_miss_latency::total     58854000                       # number of demand (read+write) miss cycles
system.cpu.icache.overall_miss_latency::cpu.inst     58854000                       # number of overall miss cycles
system.cpu.icache.overall_miss_latency::total     58854000                       # number of overall miss cycles
system.cpu.icache.ReadReq_accesses::cpu.inst   1422005625                       # number of ReadReq accesses(hits+misses)
system.cpu.icache.ReadReq_accesses::total   1422005625                       # number of ReadReq accesses(hits+misses)
system.cpu.icache.demand_accesses::cpu.inst   1422005625                       # number of demand (read+write) accesses
system.cpu.icache.demand_accesses::total   1422005625                       # number of demand (read+write) accesses
system.cpu.icache.overall_accesses::cpu.inst   1422005625                       # number of overall (read+write) accesses
system.cpu.icache.overall_accesses::total   1422005625                       # number of overall (read+write) accesses
system.cpu.icache.ReadReq_miss_rate::cpu.inst     0.000000                       # miss rate for ReadReq accesses
system.cpu.icache.ReadReq_miss_rate::total     0.000000                       # miss rate for ReadReq accesses
system.cpu.icache.demand_miss_rate::cpu.inst     0.000000                       # miss rate for demand accesses
system.cpu.icache.demand_miss_rate::total     0.000000                       # miss rate for demand accesses
system.cpu.icache.overall_miss_rate::cpu.inst     0.000000                       # miss rate for overall accesses
system.cpu.icache.overall_miss_rate::total     0.000000                       # miss rate for overall accesses
system.cpu.icache.ReadReq_avg_miss_latency::cpu.inst 166254.237288                       # average ReadReq miss latency
system.cpu.icache.ReadReq_avg_miss_latency::total 166254.237288                       # average ReadReq miss latency
system.cpu.icache.demand_avg_miss_latency::cpu.inst 166254.237288                       # average overall miss latency
system.cpu.icache.demand_avg_miss_latency::total 166254.237288                       # average overall miss latency
system.cpu.icache.overall_avg_miss_latency::cpu.inst 166254.237288                       # average overall miss latency
system.cpu.icache.overall_avg_miss_latency::total 166254.237288                       # average overall miss latency
system.cpu.icache.blocked_cycles::no_mshrs            0                       # number of cycles access was blocked
system.cpu.icache.blocked_cycles::no_targets            0                       # number of cycles access was blocked
system.cpu.icache.blocked::no_mshrs                 0                       # number of cycles access was blocked
system.cpu.icache.blocked::no_targets               0                       # number of cycles access was blocked
system.cpu.icache.avg_blocked_cycles::no_mshrs          nan                       # average number of cycles each access was blocked
system.cpu.icache.avg_blocked_cycles::no_targets          nan                       # average number of cycles each access was blocked
system.cpu.icache.writebacks::writebacks           44                       # number of writebacks
system.cpu.icache.writebacks::total                44                       # number of writebacks
system.cpu.icache.ReadReq_mshr_misses::cpu.inst          354                       # number of ReadReq MSHR misses
system.cpu.icache.ReadReq_mshr_misses::total          354                       # number of ReadReq MSHR misses
system.cpu.icache.demand_mshr_misses::cpu.inst          354                       # number of demand (read+write) MSHR misses
system.cpu.icache.demand_mshr_misses::total          354                       # number of demand (read+write) MSHR misses
system.cpu.icache.overall_mshr_misses::cpu.inst          354                       # number of overall MSHR misses
system.cpu.icache.overall_mshr_misses::total          354                       # number of overall MSHR misses
system.cpu.icache.ReadReq_mshr_miss_latency::cpu.inst     58500000                       # number of ReadReq MSHR miss cycles
system.cpu.icache.ReadReq_mshr_miss_latency::total     58500000                       # number of ReadReq MSHR miss cycles
system.cpu.icache.demand_mshr_miss_latency::cpu.inst     58500000                       # number of demand (read+write) MSHR miss cycles
system.cpu.icache.demand_mshr_miss_latency::total     58500000                       # number of demand (read+write) MSHR miss cycles
system.cpu.icache.overall_mshr_miss_latency::cpu.inst     58500000                       # number of overall MSHR miss cycles
system.cpu.icache.overall_mshr_miss_latency::total     58500000                       # number of overall MSHR miss cycles
system.cpu.icache.ReadReq_mshr_miss_rate::cpu.inst     0.000000                       # mshr miss rate for ReadReq accesses
system.cpu.icache.ReadReq_mshr_miss_rate::total     0.000000                       # mshr miss rate for ReadReq accesses
system.cpu.icache.demand_mshr_miss_rate::cpu.inst     0.000000                       # mshr miss rate for demand accesses
system.cpu.icache.demand_mshr_miss_rate::total     0.000000                       # mshr miss rate for demand accesses
system.cpu.icache.overall_mshr_miss_rate::cpu.inst     0.000000                       # mshr miss rate for overall accesses
system.cpu.icache.overall_mshr_miss_rate::total     0.000000                       # mshr miss rate for overall accesses
system.cpu.icache.ReadReq_avg_mshr_miss_latency::cpu.inst 165254.237288                       # average ReadReq mshr miss latency
system.cpu.icache.ReadReq_avg_mshr_miss_latency::total 165254.237288                       # average ReadReq mshr miss latency
system.cpu.icache.demand_avg_mshr_miss_latency::cpu.inst 165254.237288                       # average overall mshr miss latency
system.cpu.icache.demand_avg_mshr_miss_latency::total 165254.237288                       # average overall mshr miss latency
system.cpu.icache.overall_avg_mshr_miss_latency::cpu.inst 165254.237288                       # average overall mshr miss latency
system.cpu.icache.overall_avg_mshr_miss_latency::total 165254.237288                       # average overall mshr miss latency
system.cpu.icache.replacements                     44                       # number of replacements
system.cpu.itb_walker_cache.tags.pwrStateResidencyTicks::UNDEFINED 2316673580000                       # Cumulative time (in ticks) in various power states
system.cpu.itb_walker_cache.tags.tagsinuse            0                       # Cycle average of tags in use
system.cpu.itb_walker_cache.tags.total_refs            0                       # Total number of references to valid blocks.
system.cpu.itb_walker_cache.tags.sampled_refs            0                       # Sample count of references to valid blocks.
system.cpu.itb_walker_cache.tags.avg_refs          nan                       # Average number of references to valid blocks.
system.cpu.itb_walker_cache.tags.warmup_cycle            0                       # Cycle when the warmup percentage was hit.
system.cpu.itb_walker_cache.tags.tag_accesses            0                       # Number of tag accesses
system.cpu.itb_walker_cache.tags.data_accesses            0                       # Number of data accesses
system.cpu.itb_walker_cache.pwrStateResidencyTicks::UNDEFINED 2316673580000                       # Cumulative time (in ticks) in various power states
system.cpu.itb_walker_cache.blocked_cycles::no_mshrs            0                       # number of cycles access was blocked
system.cpu.itb_walker_cache.blocked_cycles::no_targets            0                       # number of cycles access was blocked
system.cpu.itb_walker_cache.blocked::no_mshrs            0                       # number of cycles access was blocked
system.cpu.itb_walker_cache.blocked::no_targets            0                       # number of cycles access was blocked
system.cpu.itb_walker_cache.avg_blocked_cycles::no_mshrs          nan                       # average number of cycles each access was blocked
system.cpu.itb_walker_cache.avg_blocked_cycles::no_targets          nan                       # average number of cycles each access was blocked
system.cpu.itb_walker_cache.replacements            0                       # number of replacements
system.l2.tags.pwrStateResidencyTicks::UNDEFINED 2316673580000                       # Cumulative time (in ticks) in various power states
system.l2.tags.tagsinuse                  2046.851437                       # Cycle average of tags in use
system.l2.tags.total_refs                     6253527                       # Total number of references to valid blocks.
system.l2.tags.sampled_refs                   1710862                       # Sample count of references to valid blocks.
system.l2.tags.avg_refs                      3.655191                       # Average number of references to valid blocks.
system.l2.tags.warmup_cycle                    438500                       # Cycle when the warmup percentage was hit.
system.l2.tags.occ_blocks::writebacks        0.006530                       # Average occupied blocks per requestor
system.l2.tags.occ_blocks::cpu.inst          0.429135                       # Average occupied blocks per requestor
system.l2.tags.occ_blocks::cpu.data       2046.415773                       # Average occupied blocks per requestor
system.l2.tags.occ_percent::writebacks       0.000003                       # Average percentage of cache occupancy
system.l2.tags.occ_percent::cpu.inst         0.000210                       # Average percentage of cache occupancy
system.l2.tags.occ_percent::cpu.data         0.999226                       # Average percentage of cache occupancy
system.l2.tags.occ_percent::total            0.999439                       # Average percentage of cache occupancy
system.l2.tags.occ_task_id_blocks::1024          2048                       # Occupied blocks per task id
system.l2.tags.age_task_id_blocks_1024::0           52                       # Occupied blocks per task id
system.l2.tags.age_task_id_blocks_1024::1           59                       # Occupied blocks per task id
system.l2.tags.age_task_id_blocks_1024::2          638                       # Occupied blocks per task id
system.l2.tags.age_task_id_blocks_1024::3         1298                       # Occupied blocks per task id
system.l2.tags.age_task_id_blocks_1024::4            1                       # Occupied blocks per task id
system.l2.tags.occ_task_id_percent::1024            1                       # Percentage of cache occupancy per task id
system.l2.tags.tag_accesses                  51739078                       # Number of tag accesses
system.l2.tags.data_accesses                 51739078                       # Number of data accesses
system.l2.pwrStateResidencyTicks::UNDEFINED 2316673580000                       # Cumulative time (in ticks) in various power states
system.l2.WritebackDirty_hits::writebacks       349612                       # number of WritebackDirty hits
system.l2.WritebackDirty_hits::total           349612                       # number of WritebackDirty hits
system.l2.WritebackClean_hits::writebacks           44                       # number of WritebackClean hits
system.l2.WritebackClean_hits::total               44                       # number of WritebackClean hits
system.l2.UpgradeReq_hits::cpu.data                 1                       # number of UpgradeReq hits
system.l2.UpgradeReq_hits::total                    1                       # number of UpgradeReq hits
system.l2.ReadExReq_hits::cpu.data               3273                       # number of ReadExReq hits
system.l2.ReadExReq_hits::total                  3273                       # number of ReadExReq hits
system.l2.ReadSharedReq_hits::cpu.data        1413056                       # number of ReadSharedReq hits
system.l2.ReadSharedReq_hits::total           1413056                       # number of ReadSharedReq hits
system.l2.demand_hits::cpu.data               1416329                       # number of demand (read+write) hits
system.l2.demand_hits::total                  1416329                       # number of demand (read+write) hits
system.l2.overall_hits::cpu.data              1416329                       # number of overall hits
system.l2.overall_hits::total                 1416329                       # number of overall hits
system.l2.ReadExReq_misses::cpu.data            16995                       # number of ReadExReq misses
system.l2.ReadExReq_misses::total               16995                       # number of ReadExReq misses
system.l2.ReadCleanReq_misses::cpu.inst           354                       # number of ReadCleanReq misses
system.l2.ReadCleanReq_misses::total              354                       # number of ReadCleanReq misses
system.l2.ReadSharedReq_misses::cpu.data      1693496                       # number of ReadSharedReq misses
system.l2.ReadSharedReq_misses::total         1693496                       # number of ReadSharedReq misses
system.l2.demand_misses::cpu.inst                 354                       # number of demand (read+write) misses
system.l2.demand_misses::cpu.data             1710491                       # number of demand (read+write) misses
system.l2.demand_misses::total                1710845                       # number of demand (read+write) misses
system.l2.overall_misses::cpu.inst                354                       # number of overall misses
system.l2.overall_misses::cpu.data            1710491                       # number of overall misses
system.l2.overall_misses::total               1710845                       # number of overall misses
system.l2.ReadExReq_miss_latency::cpu.data   3816626500                       # number of ReadExReq miss cycles
system.l2.ReadExReq_miss_latency::total    3816626500                       # number of ReadExReq miss cycles
system.l2.ReadCleanReq_miss_latency::cpu.inst     57967500                       # number of ReadCleanReq miss cycles
system.l2.ReadCleanReq_miss_latency::total     57967500                       # number of ReadCleanReq miss cycles
system.l2.ReadSharedReq_miss_latency::cpu.data 432204553000                       # number of ReadSharedReq miss cycles
system.l2.ReadSharedReq_miss_latency::total 432204553000                       # number of ReadSharedReq miss cycles
system.l2.demand_miss_latency::cpu.inst      57967500                       # number of demand (read+write) miss cycles
system.l2.demand_miss_latency::cpu.data  436021179500                       # number of demand (read+write) miss cycles
system.l2.demand_miss_latency::total     436079147000                       # number of demand (read+write) miss cycles
system.l2.overall_miss_latency::cpu.inst     57967500                       # number of overall miss cycles
system.l2.overall_miss_latency::cpu.data 436021179500                       # number of overall miss cycles
system.l2.overall_miss_latency::total    436079147000                       # number of overall miss cycles
system.l2.WritebackDirty_accesses::writebacks       349612                       # number of WritebackDirty accesses(hits+misses)
system.l2.WritebackDirty_accesses::total       349612                       # number of WritebackDirty accesses(hits+misses)
system.l2.WritebackClean_accesses::writebacks           44                       # number of WritebackClean accesses(hits+misses)
system.l2.WritebackClean_accesses::total           44                       # number of WritebackClean accesses(hits+misses)
system.l2.UpgradeReq_accesses::cpu.data             1                       # number of UpgradeReq accesses(hits+misses)
system.l2.UpgradeReq_accesses::total                1                       # number of UpgradeReq accesses(hits+misses)
system.l2.ReadExReq_accesses::cpu.data          20268                       # number of ReadExReq accesses(hits+misses)
system.l2.ReadExReq_accesses::total             20268                       # number of ReadExReq accesses(hits+misses)
system.l2.ReadCleanReq_accesses::cpu.inst          354                       # number of ReadCleanReq accesses(hits+misses)
system.l2.ReadCleanReq_accesses::total            354                       # number of ReadCleanReq accesses(hits+misses)
system.l2.ReadSharedReq_accesses::cpu.data      3106552                       # number of ReadSharedReq accesses(hits+misses)
system.l2.ReadSharedReq_accesses::total       3106552                       # number of ReadSharedReq accesses(hits+misses)
system.l2.demand_accesses::cpu.inst               354                       # number of demand (read+write) accesses
system.l2.demand_accesses::cpu.data           3126820                       # number of demand (read+write) accesses
system.l2.demand_accesses::total              3127174                       # number of demand (read+write) accesses
system.l2.overall_accesses::cpu.inst              354                       # number of overall (read+write) accesses
system.l2.overall_accesses::cpu.data          3126820                       # number of overall (read+write) accesses
system.l2.overall_accesses::total             3127174                       # number of overall (read+write) accesses
system.l2.ReadExReq_miss_rate::cpu.data      0.838514                       # miss rate for ReadExReq accesses
system.l2.ReadExReq_miss_rate::total         0.838514                       # miss rate for ReadExReq accesses
system.l2.ReadCleanReq_miss_rate::cpu.inst            1                       # miss rate for ReadCleanReq accesses
system.l2.ReadCleanReq_miss_rate::total             1                       # miss rate for ReadCleanReq accesses
system.l2.ReadSharedReq_miss_rate::cpu.data     0.545137                       # miss rate for ReadSharedReq accesses
system.l2.ReadSharedReq_miss_rate::total     0.545137                       # miss rate for ReadSharedReq accesses
system.l2.demand_miss_rate::cpu.inst                1                       # miss rate for demand accesses
system.l2.demand_miss_rate::cpu.data         0.547039                       # miss rate for demand accesses
system.l2.demand_miss_rate::total            0.547090                       # miss rate for demand accesses
system.l2.overall_miss_rate::cpu.inst               1                       # miss rate for overall accesses
system.l2.overall_miss_rate::cpu.data        0.547039                       # miss rate for overall accesses
system.l2.overall_miss_rate::total           0.547090                       # miss rate for overall accesses
system.l2.ReadExReq_avg_miss_latency::cpu.data 224573.492204                       # average ReadExReq miss latency
system.l2.ReadExReq_avg_miss_latency::total 224573.492204                       # average ReadExReq miss latency
system.l2.ReadCleanReq_avg_miss_latency::cpu.inst       163750                       # average ReadCleanReq miss latency
system.l2.ReadCleanReq_avg_miss_latency::total       163750                       # average ReadCleanReq miss latency
system.l2.ReadSharedReq_avg_miss_latency::cpu.data 255214.392594                       # average ReadSharedReq miss latency
system.l2.ReadSharedReq_avg_miss_latency::total 255214.392594                       # average ReadSharedReq miss latency
system.l2.demand_avg_miss_latency::cpu.inst       163750                       # average overall miss latency
system.l2.demand_avg_miss_latency::cpu.data 254909.952464                       # average overall miss latency
system.l2.demand_avg_miss_latency::total 254891.090075                       # average overall miss latency
system.l2.overall_avg_miss_latency::cpu.inst       163750                       # average overall miss latency
system.l2.overall_avg_miss_latency::cpu.data 254909.952464                       # average overall miss latency
system.l2.overall_avg_miss_latency::total 254891.090075                       # average overall miss latency
system.l2.blocked_cycles::no_mshrs                  0                       # number of cycles access was blocked
system.l2.blocked_cycles::no_targets                0                       # number of cycles access was blocked
system.l2.blocked::no_mshrs                         0                       # number of cycles access was blocked
system.l2.blocked::no_targets                       0                       # number of cycles access was blocked
system.l2.avg_blocked_cycles::no_mshrs            nan                       # average number of cycles each access was blocked
system.l2.avg_blocked_cycles::no_targets          nan                       # average number of cycles each access was blocked
system.l2.writebacks::writebacks               538179                       # number of writebacks
system.l2.writebacks::total                    538179                       # number of writebacks
system.l2.ReadExReq_mshr_misses::cpu.data        16995                       # number of ReadExReq MSHR misses
system.l2.ReadExReq_mshr_misses::total          16995                       # number of ReadExReq MSHR misses
system.l2.ReadCleanReq_mshr_misses::cpu.inst          354                       # number of ReadCleanReq MSHR misses
system.l2.ReadCleanReq_mshr_misses::total          354                       # number of ReadCleanReq MSHR misses
system.l2.ReadSharedReq_mshr_misses::cpu.data      1693496                       # number of ReadSharedReq MSHR misses
system.l2.ReadSharedReq_mshr_misses::total      1693496                       # number of ReadSharedReq MSHR misses
system.l2.demand_mshr_misses::cpu.inst            354                       # number of demand (read+write) MSHR misses
system.l2.demand_mshr_misses::cpu.data        1710491                       # number of demand (read+write) MSHR misses
system.l2.demand_mshr_misses::total           1710845                       # number of demand (read+write) MSHR misses
system.l2.overall_mshr_misses::cpu.inst           354                       # number of overall MSHR misses
system.l2.overall_mshr_misses::cpu.data       1710491                       # number of overall MSHR misses
system.l2.overall_mshr_misses::total          1710845                       # number of overall MSHR misses
system.l2.ReadExReq_mshr_miss_latency::cpu.data   3646676500                       # number of ReadExReq MSHR miss cycles
system.l2.ReadExReq_mshr_miss_latency::total   3646676500                       # number of ReadExReq MSHR miss cycles
system.l2.ReadCleanReq_mshr_miss_latency::cpu.inst     54427500                       # number of ReadCleanReq MSHR miss cycles
system.l2.ReadCleanReq_mshr_miss_latency::total     54427500                       # number of ReadCleanReq MSHR miss cycles
system.l2.ReadSharedReq_mshr_miss_latency::cpu.data 415269593000                       # number of ReadSharedReq MSHR miss cycles
system.l2.ReadSharedReq_mshr_miss_latency::total 415269593000                       # number of ReadSharedReq MSHR miss cycles
system.l2.demand_mshr_miss_latency::cpu.inst     54427500                       # number of demand (read+write) MSHR miss cycles
system.l2.demand_mshr_miss_latency::cpu.data 418916269500                       # number of demand (read+write) MSHR miss cycles
system.l2.demand_mshr_miss_latency::total 418970697000                       # number of demand (read+write) MSHR miss cycles
system.l2.overall_mshr_miss_latency::cpu.inst     54427500                       # number of overall MSHR miss cycles
system.l2.overall_mshr_miss_latency::cpu.data 418916269500                       # number of overall MSHR miss cycles
system.l2.overall_mshr_miss_latency::total 418970697000                       # number of overall MSHR miss cycles
system.l2.ReadExReq_mshr_miss_rate::cpu.data     0.838514                       # mshr miss rate for ReadExReq accesses
system.l2.ReadExReq_mshr_miss_rate::total     0.838514                       # mshr miss rate for ReadExReq accesses
system.l2.ReadCleanReq_mshr_miss_rate::cpu.inst            1                       # mshr miss rate for ReadCleanReq accesses
system.l2.ReadCleanReq_mshr_miss_rate::total            1                       # mshr miss rate for ReadCleanReq accesses
system.l2.ReadSharedReq_mshr_miss_rate::cpu.data     0.545137                       # mshr miss rate for ReadSharedReq accesses
system.l2.ReadSharedReq_mshr_miss_rate::total     0.545137                       # mshr miss rate for ReadSharedReq accesses
system.l2.demand_mshr_miss_rate::cpu.inst            1                       # mshr miss rate for demand accesses
system.l2.demand_mshr_miss_rate::cpu.data     0.547039                       # mshr miss rate for demand accesses
system.l2.demand_mshr_miss_rate::total       0.547090                       # mshr miss rate for demand accesses
system.l2.overall_mshr_miss_rate::cpu.inst            1                       # mshr miss rate for overall accesses
system.l2.overall_mshr_miss_rate::cpu.data     0.547039                       # mshr miss rate for overall accesses
system.l2.overall_mshr_miss_rate::total      0.547090                       # mshr miss rate for overall accesses
system.l2.ReadExReq_avg_mshr_miss_latency::cpu.data 214573.492204                       # average ReadExReq mshr miss latency
system.l2.ReadExReq_avg_mshr_miss_latency::total 214573.492204                       # average ReadExReq mshr miss latency
system.l2.ReadCleanReq_avg_mshr_miss_latency::cpu.inst       153750                       # average ReadCleanReq mshr miss latency
system.l2.ReadCleanReq_avg_mshr_miss_latency::total       153750                       # average ReadCleanReq mshr miss latency
system.l2.ReadSharedReq_avg_mshr_miss_latency::cpu.data 245214.392594                       # average ReadSharedReq mshr miss latency
system.l2.ReadSharedReq_avg_mshr_miss_latency::total 245214.392594                       # average ReadSharedReq mshr miss latency
system.l2.demand_avg_mshr_miss_latency::cpu.inst       153750                       # average overall mshr miss latency
system.l2.demand_avg_mshr_miss_latency::cpu.data 244909.952464                       # average overall mshr miss latency
system.l2.demand_avg_mshr_miss_latency::total 244891.090075                       # average overall mshr miss latency
system.l2.overall_avg_mshr_miss_latency::cpu.inst       153750                       # average overall mshr miss latency
system.l2.overall_avg_mshr_miss_latency::cpu.data 244909.952464                       # average overall mshr miss latency
system.l2.overall_avg_mshr_miss_latency::total 244891.090075                       # average overall mshr miss latency
system.l2.replacements                        1708814                       # number of replacements
system.l3.tags.pwrStateResidencyTicks::UNDEFINED 2316673580000                       # Cumulative time (in ticks) in various power states
system.l3.tags.tagsinuse                  4090.086590                       # Cycle average of tags in use
system.l3.tags.total_refs                     2638891                       # Total number of references to valid blocks.
system.l3.tags.sampled_refs                   1073272                       # Sample count of references to valid blocks.
system.l3.tags.avg_refs                      2.458735                       # Average number of references to valid blocks.
system.l3.tags.warmup_cycle                    418000                       # Cycle when the warmup percentage was hit.
system.l3.tags.occ_blocks::writebacks      211.965741                       # Average occupied blocks per requestor
system.l3.tags.occ_blocks::cpu.inst         47.066895                       # Average occupied blocks per requestor
system.l3.tags.occ_blocks::cpu.data       3831.053954                       # Average occupied blocks per requestor
system.l3.tags.occ_percent::writebacks       0.051749                       # Average percentage of cache occupancy
system.l3.tags.occ_percent::cpu.inst         0.011491                       # Average percentage of cache occupancy
system.l3.tags.occ_percent::cpu.data         0.935316                       # Average percentage of cache occupancy
system.l3.tags.occ_percent::total            0.998556                       # Average percentage of cache occupancy
system.l3.tags.occ_task_id_blocks::1024          4096                       # Occupied blocks per task id
system.l3.tags.age_task_id_blocks_1024::0           41                       # Occupied blocks per task id
system.l3.tags.age_task_id_blocks_1024::1           47                       # Occupied blocks per task id
system.l3.tags.age_task_id_blocks_1024::2          392                       # Occupied blocks per task id
system.l3.tags.age_task_id_blocks_1024::3          544                       # Occupied blocks per task id
system.l3.tags.age_task_id_blocks_1024::4         3072                       # Occupied blocks per task id
system.l3.tags.occ_task_id_percent::1024            1                       # Percentage of cache occupancy per task id
system.l3.tags.tag_accesses                  14750748                       # Number of tag accesses
system.l3.tags.data_accesses                 14750748                       # Number of data accesses
system.l3.pwrStateResidencyTicks::UNDEFINED 2316673580000                       # Cumulative time (in ticks) in various power states
system.l3.WritebackDirty_hits::writebacks       538179                       # number of WritebackDirty hits
system.l3.WritebackDirty_hits::total           538179                       # number of WritebackDirty hits
system.l3.ReadExReq_hits::cpu.data                 10                       # number of ReadExReq hits
system.l3.ReadExReq_hits::total                    10                       # number of ReadExReq hits
system.l3.ReadSharedReq_hits::cpu.data         650960                       # number of ReadSharedReq hits
system.l3.ReadSharedReq_hits::total            650960                       # number of ReadSharedReq hits
system.l3.demand_hits::cpu.data                650970                       # number of demand (read+write) hits
system.l3.demand_hits::total                   650970                       # number of demand (read+write) hits
system.l3.overall_hits::cpu.data               650970                       # number of overall hits
system.l3.overall_hits::total                  650970                       # number of overall hits
system.l3.ReadExReq_misses::cpu.data            16985                       # number of ReadExReq misses
system.l3.ReadExReq_misses::total               16985                       # number of ReadExReq misses
system.l3.ReadSharedReq_misses::cpu.inst          354                       # number of ReadSharedReq misses
system.l3.ReadSharedReq_misses::cpu.data      1042536                       # number of ReadSharedReq misses
system.l3.ReadSharedReq_misses::total         1042890                       # number of ReadSharedReq misses
system.l3.demand_misses::cpu.inst                 354                       # number of demand (read+write) misses
system.l3.demand_misses::cpu.data             1059521                       # number of demand (read+write) misses
system.l3.demand_misses::total                1059875                       # number of demand (read+write) misses
system.l3.overall_misses::cpu.inst                354                       # number of overall misses
system.l3.overall_misses::cpu.data            1059521                       # number of overall misses
system.l3.overall_misses::total               1059875                       # number of overall misses
system.l3.ReadExReq_miss_latency::cpu.data   3459526500                       # number of ReadExReq miss cycles
system.l3.ReadExReq_miss_latency::total    3459526500                       # number of ReadExReq miss cycles
system.l3.ReadSharedReq_miss_latency::cpu.inst     50533500                       # number of ReadSharedReq miss cycles
system.l3.ReadSharedReq_miss_latency::cpu.data 383293835500                       # number of ReadSharedReq miss cycles
system.l3.ReadSharedReq_miss_latency::total 383344369000                       # number of ReadSharedReq miss cycles
system.l3.demand_miss_latency::cpu.inst      50533500                       # number of demand (read+write) miss cycles
system.l3.demand_miss_latency::cpu.data  386753362000                       # number of demand (read+write) miss cycles
system.l3.demand_miss_latency::total     386803895500                       # number of demand (read+write) miss cycles
system.l3.overall_miss_latency::cpu.inst     50533500                       # number of overall miss cycles
system.l3.overall_miss_latency::cpu.data 386753362000                       # number of overall miss cycles
system.l3.overall_miss_latency::total    386803895500                       # number of overall miss cycles
system.l3.WritebackDirty_accesses::writebacks       538179                       # number of WritebackDirty accesses(hits+misses)
system.l3.WritebackDirty_accesses::total       538179                       # number of WritebackDirty accesses(hits+misses)
system.l3.ReadExReq_accesses::cpu.data          16995                       # number of ReadExReq accesses(hits+misses)
system.l3.ReadExReq_accesses::total             16995                       # number of ReadExReq accesses(hits+misses)
system.l3.ReadSharedReq_accesses::cpu.inst          354                       # number of ReadSharedReq accesses(hits+misses)
system.l3.ReadSharedReq_accesses::cpu.data      1693496                       # number of ReadSharedReq accesses(hits+misses)
system.l3.ReadSharedReq_accesses::total       1693850                       # number of ReadSharedReq accesses(hits+misses)
system.l3.demand_accesses::cpu.inst               354                       # number of demand (read+write) accesses
system.l3.demand_accesses::cpu.data           1710491                       # number of demand (read+write) accesses
system.l3.demand_accesses::total              1710845                       # number of demand (read+write) accesses
system.l3.overall_accesses::cpu.inst              354                       # number of overall (read+write) accesses
system.l3.overall_accesses::cpu.data          1710491                       # number of overall (read+write) accesses
system.l3.overall_accesses::total             1710845                       # number of overall (read+write) accesses
system.l3.ReadExReq_miss_rate::cpu.data      0.999412                       # miss rate for ReadExReq accesses
system.l3.ReadExReq_miss_rate::total         0.999412                       # miss rate for ReadExReq accesses
system.l3.ReadSharedReq_miss_rate::cpu.inst            1                       # miss rate for ReadSharedReq accesses
system.l3.ReadSharedReq_miss_rate::cpu.data     0.615612                       # miss rate for ReadSharedReq accesses
system.l3.ReadSharedReq_miss_rate::total     0.615692                       # miss rate for ReadSharedReq accesses
system.l3.demand_miss_rate::cpu.inst                1                       # miss rate for demand accesses
system.l3.demand_miss_rate::cpu.data         0.619425                       # miss rate for demand accesses
system.l3.demand_miss_rate::total            0.619504                       # miss rate for demand accesses
system.l3.overall_miss_rate::cpu.inst               1                       # miss rate for overall accesses
system.l3.overall_miss_rate::cpu.data        0.619425                       # miss rate for overall accesses
system.l3.overall_miss_rate::total           0.619504                       # miss rate for overall accesses
system.l3.ReadExReq_avg_miss_latency::cpu.data 203681.277598                       # average ReadExReq miss latency
system.l3.ReadExReq_avg_miss_latency::total 203681.277598                       # average ReadExReq miss latency
system.l3.ReadSharedReq_avg_miss_latency::cpu.inst       142750                       # average ReadSharedReq miss latency
system.l3.ReadSharedReq_avg_miss_latency::cpu.data 367655.251713                       # average ReadSharedReq miss latency
system.l3.ReadSharedReq_avg_miss_latency::total 367578.909569                       # average ReadSharedReq miss latency
system.l3.demand_avg_miss_latency::cpu.inst       142750                       # average overall miss latency
system.l3.demand_avg_miss_latency::cpu.data 365026.612969                       # average overall miss latency
system.l3.demand_avg_miss_latency::total 364952.372214                       # average overall miss latency
system.l3.overall_avg_miss_latency::cpu.inst       142750                       # average overall miss latency
system.l3.overall_avg_miss_latency::cpu.data 365026.612969                       # average overall miss latency
system.l3.overall_avg_miss_latency::total 364952.372214                       # average overall miss latency
system.l3.blocked_cycles::no_mshrs                  0                       # number of cycles access was blocked
system.l3.blocked_cycles::no_targets                0                       # number of cycles access was blocked
system.l3.blocked::no_mshrs                         0                       # number of cycles access was blocked
system.l3.blocked::no_targets                       0                       # number of cycles access was blocked
system.l3.avg_blocked_cycles::no_mshrs            nan                       # average number of cycles each access was blocked
system.l3.avg_blocked_cycles::no_targets          nan                       # average number of cycles each access was blocked
system.l3.writebacks::writebacks                14435                       # number of writebacks
system.l3.writebacks::total                     14435                       # number of writebacks
system.l3.CleanEvict_mshr_misses::writebacks       780478                       # number of CleanEvict MSHR misses
system.l3.CleanEvict_mshr_misses::total        780478                       # number of CleanEvict MSHR misses
system.l3.ReadExReq_mshr_misses::cpu.data        16985                       # number of ReadExReq MSHR misses
system.l3.ReadExReq_mshr_misses::total          16985                       # number of ReadExReq MSHR misses
system.l3.ReadSharedReq_mshr_misses::cpu.inst          354                       # number of ReadSharedReq MSHR misses
system.l3.ReadSharedReq_mshr_misses::cpu.data      1042536                       # number of ReadSharedReq MSHR misses
system.l3.ReadSharedReq_mshr_misses::total      1042890                       # number of ReadSharedReq MSHR misses
system.l3.demand_mshr_misses::cpu.inst            354                       # number of demand (read+write) MSHR misses
system.l3.demand_mshr_misses::cpu.data        1059521                       # number of demand (read+write) MSHR misses
system.l3.demand_mshr_misses::total           1059875                       # number of demand (read+write) MSHR misses
system.l3.overall_mshr_misses::cpu.inst           354                       # number of overall MSHR misses
system.l3.overall_mshr_misses::cpu.data       1059521                       # number of overall MSHR misses
system.l3.overall_mshr_misses::total          1059875                       # number of overall MSHR misses
system.l3.ReadExReq_mshr_miss_latency::cpu.data   3119826500                       # number of ReadExReq MSHR miss cycles
system.l3.ReadExReq_mshr_miss_latency::total   3119826500                       # number of ReadExReq MSHR miss cycles
system.l3.ReadSharedReq_mshr_miss_latency::cpu.inst     43453500                       # number of ReadSharedReq MSHR miss cycles
system.l3.ReadSharedReq_mshr_miss_latency::cpu.data 362443115500                       # number of ReadSharedReq MSHR miss cycles
system.l3.ReadSharedReq_mshr_miss_latency::total 362486569000                       # number of ReadSharedReq MSHR miss cycles
system.l3.demand_mshr_miss_latency::cpu.inst     43453500                       # number of demand (read+write) MSHR miss cycles
system.l3.demand_mshr_miss_latency::cpu.data 365562942000                       # number of demand (read+write) MSHR miss cycles
system.l3.demand_mshr_miss_latency::total 365606395500                       # number of demand (read+write) MSHR miss cycles
system.l3.overall_mshr_miss_latency::cpu.inst     43453500                       # number of overall MSHR miss cycles
system.l3.overall_mshr_miss_latency::cpu.data 365562942000                       # number of overall MSHR miss cycles
system.l3.overall_mshr_miss_latency::total 365606395500                       # number of overall MSHR miss cycles
system.l3.CleanEvict_mshr_miss_rate::writebacks          inf                       # mshr miss rate for CleanEvict accesses
system.l3.CleanEvict_mshr_miss_rate::total          inf                       # mshr miss rate for CleanEvict accesses
system.l3.ReadExReq_mshr_miss_rate::cpu.data     0.999412                       # mshr miss rate for ReadExReq accesses
system.l3.ReadExReq_mshr_miss_rate::total     0.999412                       # mshr miss rate for ReadExReq accesses
system.l3.ReadSharedReq_mshr_miss_rate::cpu.inst            1                       # mshr miss rate for ReadSharedReq accesses
system.l3.ReadSharedReq_mshr_miss_rate::cpu.data     0.615612                       # mshr miss rate for ReadSharedReq accesses
system.l3.ReadSharedReq_mshr_miss_rate::total     0.615692                       # mshr miss rate for ReadSharedReq accesses
system.l3.demand_mshr_miss_rate::cpu.inst            1                       # mshr miss rate for demand accesses
system.l3.demand_mshr_miss_rate::cpu.data     0.619425                       # mshr miss rate for demand accesses
system.l3.demand_mshr_miss_rate::total       0.619504                       # mshr miss rate for demand accesses
system.l3.overall_mshr_miss_rate::cpu.inst            1                       # mshr miss rate for overall accesses
system.l3.overall_mshr_miss_rate::cpu.data     0.619425                       # mshr miss rate for overall accesses
system.l3.overall_mshr_miss_rate::total      0.619504                       # mshr miss rate for overall accesses
system.l3.ReadExReq_avg_mshr_miss_latency::cpu.data 183681.277598                       # average ReadExReq mshr miss latency
system.l3.ReadExReq_avg_mshr_miss_latency::total 183681.277598                       # average ReadExReq mshr miss latency
system.l3.ReadSharedReq_avg_mshr_miss_latency::cpu.inst       122750                       # average ReadSharedReq mshr miss latency
system.l3.ReadSharedReq_avg_mshr_miss_latency::cpu.data 347655.251713                       # average ReadSharedReq mshr miss latency
system.l3.ReadSharedReq_avg_mshr_miss_latency::total 347578.909569                       # average ReadSharedReq mshr miss latency
system.l3.demand_avg_mshr_miss_latency::cpu.inst       122750                       # average overall mshr miss latency
system.l3.demand_avg_mshr_miss_latency::cpu.data 345026.612969                       # average overall mshr miss latency
system.l3.demand_avg_mshr_miss_latency::total 344952.372214                       # average overall mshr miss latency
system.l3.overall_avg_mshr_miss_latency::cpu.inst       122750                       # average overall mshr miss latency
system.l3.overall_avg_mshr_miss_latency::cpu.data 345026.612969                       # average overall mshr miss latency
system.l3.overall_avg_mshr_miss_latency::total 344952.372214                       # average overall mshr miss latency
system.l3.replacements                        1069176                       # number of replacements
system.membus.snoop_filter.tot_requests       2115681                       # Total number of requests made to the snoop filter.
system.membus.snoop_filter.hit_single_requests      1055806                       # Number of requests hitting in the snoop filter with a single holder of the requested data.
system.membus.snoop_filter.hit_multi_requests            0                       # Number of requests hitting in the snoop filter with multiple (>1) holders of the requested data.
system.membus.snoop_filter.tot_snoops               0                       # Total number of snoops made to the snoop filter.
system.membus.snoop_filter.hit_single_snoops            0                       # Number of snoops hitting in the snoop filter with a single holder of the requested data.
system.membus.snoop_filter.hit_multi_snoops            0                       # Number of snoops hitting in the snoop filter with multiple (>1) holders of the requested data.
system.membus.pwrStateResidencyTicks::UNDEFINED 2316673580000                       # Cumulative time (in ticks) in various power states
system.membus.trans_dist::ReadResp            1042890                       # Transaction distribution
system.membus.trans_dist::WritebackDirty        14435                       # Transaction distribution
system.membus.trans_dist::CleanEvict          1040620                       # Transaction distribution
system.membus.trans_dist::ReadExReq             16985                       # Transaction distribution
system.membus.trans_dist::ReadExResp            16985                       # Transaction distribution
system.membus.trans_dist::ReadSharedReq       1042890                       # Transaction distribution
system.membus.pkt_count_system.l3.mem_side::system.mem_ctrls.port      3174805                       # Packet count per connected master and slave (bytes)
system.membus.pkt_count_system.l3.mem_side::total      3174805                       # Packet count per connected master and slave (bytes)
system.membus.pkt_count::total                3174805                       # Packet count per connected master and slave (bytes)
system.membus.pkt_size_system.l3.mem_side::system.mem_ctrls.port     68755840                       # Cumulative packet size per connected master and slave (bytes)
system.membus.pkt_size_system.l3.mem_side::total     68755840                       # Cumulative packet size per connected master and slave (bytes)
system.membus.pkt_size::total                68755840                       # Cumulative packet size per connected master and slave (bytes)
system.membus.snoops                                0                       # Total snoops (count)
system.membus.snoopTraffic                          0                       # Total snoop traffic (bytes)
system.membus.snoop_fanout::samples           1059875                       # Request fanout histogram
system.membus.snoop_fanout::mean                    0                       # Request fanout histogram
system.membus.snoop_fanout::stdev                   0                       # Request fanout histogram
system.membus.snoop_fanout::underflows              0      0.00%      0.00% # Request fanout histogram
system.membus.snoop_fanout::0                 1059875    100.00%    100.00% # Request fanout histogram
system.membus.snoop_fanout::1                       0      0.00%    100.00% # Request fanout histogram
system.membus.snoop_fanout::overflows               0      0.00%    100.00% # Request fanout histogram
system.membus.snoop_fanout::min_value               0                       # Request fanout histogram
system.membus.snoop_fanout::max_value               0                       # Request fanout histogram
system.membus.snoop_fanout::total             1059875                       # Request fanout histogram
system.membus.reqLayer2.occupancy          2173422500                       # Layer occupancy (ticks)
system.membus.reqLayer2.utilization               0.1                       # Layer utilization (%)
system.membus.respLayer1.occupancy         5299376500                       # Layer occupancy (ticks)
system.membus.respLayer1.utilization              0.2                       # Layer utilization (%)
system.tol2bus.snoop_filter.tot_requests      6253527                       # Total number of requests made to the snoop filter.
system.tol2bus.snoop_filter.hit_single_requests      3126353                       # Number of requests hitting in the snoop filter with a single holder of the requested data.
system.tol2bus.snoop_filter.hit_multi_requests            0                       # Number of requests hitting in the snoop filter with multiple (>1) holders of the requested data.
system.tol2bus.snoop_filter.tot_snoops          28333                       # Total number of snoops made to the snoop filter.
system.tol2bus.snoop_filter.hit_single_snoops        28333                       # Number of snoops hitting in the snoop filter with a single holder of the requested data.
system.tol2bus.snoop_filter.hit_multi_snoops            0                       # Number of snoops hitting in the snoop filter with multiple (>1) holders of the requested data.
system.tol2bus.pwrStateResidencyTicks::UNDEFINED 2316673580000                       # Cumulative time (in ticks) in various power states
system.tol2bus.trans_dist::ReadResp           3106906                       # Transaction distribution
system.tol2bus.trans_dist::WritebackDirty       887791                       # Transaction distribution
system.tol2bus.trans_dist::WritebackClean           44                       # Transaction distribution
system.tol2bus.trans_dist::CleanEvict         4741930                       # Transaction distribution
system.tol2bus.trans_dist::UpgradeReq               1                       # Transaction distribution
system.tol2bus.trans_dist::UpgradeResp              1                       # Transaction distribution
system.tol2bus.trans_dist::ReadExReq            20268                       # Transaction distribution
system.tol2bus.trans_dist::ReadExResp           20268                       # Transaction distribution
system.tol2bus.trans_dist::ReadCleanReq           354                       # Transaction distribution
system.tol2bus.trans_dist::ReadSharedReq      3106552                       # Transaction distribution
system.tol2bus.pkt_count_system.cpu.icache.mem_side::system.l2.cpu_side          752                       # Packet count per connected master and slave (bytes)
system.tol2bus.pkt_count_system.cpu.dcache.mem_side::system.l2.cpu_side      9379950                       # Packet count per connected master and slave (bytes)
system.tol2bus.pkt_count::total               9380702                       # Packet count per connected master and slave (bytes)
system.tol2bus.pkt_size_system.cpu.icache.mem_side::system.l2.cpu_side        25472                       # Cumulative packet size per connected master and slave (bytes)
system.tol2bus.pkt_size_system.cpu.dcache.mem_side::system.l2.cpu_side    222491648                       # Cumulative packet size per connected master and slave (bytes)
system.tol2bus.pkt_size::total              222517120                       # Cumulative packet size per connected master and slave (bytes)
system.tol2bus.snoops                         2503413                       # Total snoops (count)
system.tol2bus.snoopTraffic                  34443456                       # Total snoop traffic (bytes)
system.tol2bus.snoop_fanout::samples          5630588                       # Request fanout histogram
system.tol2bus.snoop_fanout::mean            0.005032                       # Request fanout histogram
system.tol2bus.snoop_fanout::stdev           0.070758                       # Request fanout histogram
system.tol2bus.snoop_fanout::underflows             0      0.00%      0.00% # Request fanout histogram
system.tol2bus.snoop_fanout::0                5602255     99.50%     99.50% # Request fanout histogram
system.tol2bus.snoop_fanout::1                  28333      0.50%    100.00% # Request fanout histogram
system.tol2bus.snoop_fanout::2                      0      0.00%    100.00% # Request fanout histogram
system.tol2bus.snoop_fanout::3                      0      0.00%    100.00% # Request fanout histogram
system.tol2bus.snoop_fanout::4                      0      0.00%    100.00% # Request fanout histogram
system.tol2bus.snoop_fanout::overflows              0      0.00%    100.00% # Request fanout histogram
system.tol2bus.snoop_fanout::min_value              0                       # Request fanout histogram
system.tol2bus.snoop_fanout::max_value              1                       # Request fanout histogram
system.tol2bus.snoop_fanout::total            5630588                       # Request fanout histogram
system.tol2bus.reqLayer0.occupancy         3476419500                       # Layer occupancy (ticks)
system.tol2bus.reqLayer0.utilization              0.2                       # Layer utilization (%)
system.tol2bus.respLayer0.occupancy            531000                       # Layer occupancy (ticks)
system.tol2bus.respLayer0.utilization             0.0                       # Layer utilization (%)
system.tol2bus.respLayer1.occupancy        4690230500                       # Layer occupancy (ticks)
system.tol2bus.respLayer1.utilization             0.2                       # Layer utilization (%)
system.tol3bus.snoop_filter.tot_requests      3419370                       # Total number of requests made to the snoop filter.
system.tol3bus.snoop_filter.hit_single_requests      1708524                       # Number of requests hitting in the snoop filter with a single holder of the requested data.
system.tol3bus.snoop_filter.hit_multi_requests            0                       # Number of requests hitting in the snoop filter with multiple (>1) holders of the requested data.
system.tol3bus.snoop_filter.tot_snoops         794599                       # Total number of snoops made to the snoop filter.
system.tol3bus.snoop_filter.hit_single_snoops       794599                       # Number of snoops hitting in the snoop filter with a single holder of the requested data.
system.tol3bus.snoop_filter.hit_multi_snoops            0                       # Number of snoops hitting in the snoop filter with multiple (>1) holders of the requested data.
system.tol3bus.pwrStateResidencyTicks::UNDEFINED 2316673580000                       # Cumulative time (in ticks) in various power states
system.tol3bus.trans_dist::ReadResp           1693850                       # Transaction distribution
system.tol3bus.trans_dist::WritebackDirty       552614                       # Transaction distribution
system.tol3bus.trans_dist::CleanEvict         2225086                       # Transaction distribution
system.tol3bus.trans_dist::ReadExReq            16995                       # Transaction distribution
system.tol3bus.trans_dist::ReadExResp           16995                       # Transaction distribution
system.tol3bus.trans_dist::ReadSharedReq      1693850                       # Transaction distribution
system.tol3bus.pkt_count_system.l2.mem_side::system.l3.cpu_side      5130214                       # Packet count per connected master and slave (bytes)
system.tol3bus.pkt_size_system.l2.mem_side::system.l3.cpu_side    143937536                       # Cumulative packet size per connected master and slave (bytes)
system.tol3bus.snoops                         1069176                       # Total snoops (count)
system.tol3bus.snoopTraffic                    923840                       # Total snoop traffic (bytes)
system.tol3bus.snoop_fanout::samples          2780022                       # Request fanout histogram
system.tol3bus.snoop_fanout::mean            0.285825                       # Request fanout histogram
system.tol3bus.snoop_fanout::stdev           0.451806                       # Request fanout histogram
system.tol3bus.snoop_fanout::underflows             0      0.00%      0.00% # Request fanout histogram
system.tol3bus.snoop_fanout::0                1985423     71.42%     71.42% # Request fanout histogram
system.tol3bus.snoop_fanout::1                 794599     28.58%    100.00% # Request fanout histogram
system.tol3bus.snoop_fanout::overflows              0      0.00%    100.00% # Request fanout histogram
system.tol3bus.snoop_fanout::min_value              0                       # Request fanout histogram
system.tol3bus.snoop_fanout::max_value              1                       # Request fanout histogram
system.tol3bus.snoop_fanout::total            2780022                       # Request fanout histogram
system.tol3bus.reqLayer0.occupancy         2247864499                       # Layer occupancy (ticks)
system.tol3bus.reqLayer0.utilization              0.1                       # Layer utilization (%)
system.tol3bus.respLayer0.occupancy        2566267501                       # Layer occupancy (ticks)
system.tol3bus.respLayer0.utilization             0.1                       # Layer utilization (%)

---------- End Simulation Statistics   ----------
